124202900
  -OEChem-05301913402D

202251  0     1  0  0  0  0  0999 V2000
    2.5406    0.5274    0.0000 O   0  0  0  0  0  0  0  0  0  0  0  0
    2.5350   -2.2204    0.0000 O   0  0  0  0  0  0  0  0  0  0  0  0
    3.3886    2.0377    0.0000 O   0  0  0  0  0  0  0  0  0  0  0  0
   16.5585    2.3671    0.0000 O   0  0  0  0  0  0  0  0  0  0  0  0
    3.4879   -0.7740    0.0000 O   0  0  0  0  0  0  0  0  0  0  0  0
   15.5354    0.9695    0.0000 O   0  0  0  0  0  0  0  0  0  0  0  0
    7.6800    8.7000    0.0000 O   0  0  0  0  0  0  0  0  0  0  0  0
    9.4115    8.7420    0.0000 O   0  0  0  0  0  0  0  0  0  0  0  0
    5.2887   -8.2345    0.0000 O   0  0  0  0  0  0  0  0  0  0  0  0
   12.8055   -8.9046    0.0000 O   0  0  0  0  0  0  0  0  0  0  0  0
    2.3106   -4.7449    0.0000 O   0  0  0  0  0  0  0  0  0  0  0  0
    7.0038   -8.4761    0.0000 O   0  0  0  0  0  0  0  0  0  0  0  0
   11.0762   -8.8070    0.0000 O   0  0  0  0  0  0  0  0  0  0  0  0
    3.3809   -3.3831    0.0000 O   0  0  0  0  0  0  0  0  0  0  0  0
   16.4433   -5.6674    0.0000 O   0  0  0  0  0  0  0  0  0  0  0  0
   15.5988   -4.1552    0.0000 O   0  0  0  0  0  0  0  0  0  0  0  0
    3.3422    8.0256    0.0000 O   0  0  0  0  0  0  0  0  0  0  0  0
   14.7746    8.9044    0.0000 O   0  0  0  0  0  0  0  0  0  0  0  0
    2.4966    6.5140    0.0000 O   0  0  0  0  0  0  0  0  0  0  0  0
   13.0448    8.8154    0.0000 O   0  0  0  0  0  0  0  0  0  0  0  0
    9.5215   -0.4503    0.0000 C   0  0  0  0  0  0  0  0  0  0  0  0
    9.5375    0.5912    0.0000 C   0  0  0  0  0  0  0  0  0  0  0  0
    8.6443   -0.9130    0.0000 C   0  0  0  0  0  0  0  0  0  0  0  0
    8.6715    1.0912    0.0000 C   0  0  0  0  0  0  0  0  0  0  0  0
   10.4195   -0.9780    0.0000 C   0  0  0  0  0  0  0  0  0  0  0  0
   10.4035    1.0912    0.0000 C   0  0  0  0  0  0  0  0  0  0  0  0
    7.7986   -0.3952    0.0000 C   0  0  0  0  0  0  0  0  0  0  0  0
    7.8120    0.5965    0.0000 C   0  0  0  0  0  0  0  0  0  0  0  0
    8.5942   -1.9536    0.0000 C   0  0  0  0  0  0  0  0  0  0  0  0
   11.3135    0.5844    0.0000 C   0  0  0  0  0  0  0  0  0  0  0  0
   11.3216   -0.4572    0.0000 C   0  0  0  0  0  0  0  0  0  0  0  0
    8.6715    2.0912    0.0000 C   0  0  0  0  0  0  0  0  0  0  0  0
   10.3934   -2.0195    0.0000 C   0  0  0  0  0  0  0  0  0  0  0  0
   10.4035    2.0912    0.0000 C   0  0  0  0  0  0  0  0  0  0  0  0
    9.4746   -2.5106    0.0000 C   0  0  0  0  0  0  0  0  0  0  0  0
    9.5375    2.5912    0.0000 C   0  0  0  0  0  0  0  0  0  0  0  0
    7.7081   -2.3856    0.0000 C   0  0  0  0  0  0  0  0  0  0  0  0
    6.9290   -0.8595    0.0000 C   0  0  0  0  0  0  0  0  0  0  0  0
    7.8120    2.5860    0.0000 C   0  0  0  0  0  0  0  0  0  0  0  0
    6.9239    1.0809    0.0000 C   0  0  0  0  0  0  0  0  0  0  0  0
   11.3135    2.5981    0.0000 C   0  0  0  0  0  0  0  0  0  0  0  0
   11.2831   -2.5261    0.0000 C   0  0  0  0  0  0  0  0  0  0  0  0
   12.1529    1.1126    0.0000 C   0  0  0  0  0  0  0  0  0  0  0  0
   12.1919   -0.9962    0.0000 C   0  0  0  0  0  0  0  0  0  0  0  0
    9.4533   -3.5711    0.0000 C   0  0  0  0  0  0  0  0  0  0  0  0
    9.5215    3.6327    0.0000 C   0  0  0  0  0  0  0  0  0  0  0  0
    6.8842   -1.8442    0.0000 C   0  0  0  0  0  0  0  0  0  0  0  0
    6.9296    2.0921    0.0000 C   0  0  0  0  0  0  0  0  0  0  0  0
   12.1272    2.1040    0.0000 C   0  0  0  0  0  0  0  0  0  0  0  0
   12.1729   -2.0198    0.0000 C   0  0  0  0  0  0  0  0  0  0  0  0
    7.6228   -3.4207    0.0000 C   0  0  0  0  0  0  0  0  0  0  0  0
    7.7986    3.5776    0.0000 C   0  0  0  0  0  0  0  0  0  0  0  0
   11.2862   -3.5868    0.0000 C   0  0  0  0  0  0  0  0  0  0  0  0
   11.3216    3.6397    0.0000 C   0  0  0  0  0  0  0  0  0  0  0  0
    8.4811   -4.0056    0.0000 C   0  0  0  0  0  0  0  0  0  0  0  0
   10.3652   -4.1128    0.0000 C   0  0  0  0  0  0  0  0  0  0  0  0
    6.0523    0.5779    0.0000 C   0  0  0  0  0  0  0  0  0  0  0  0
    8.6443    4.0955    0.0000 C   0  0  0  0  0  0  0  0  0  0  0  0
   10.4195    4.1605    0.0000 C   0  0  0  0  0  0  0  0  0  0  0  0
    6.0599   -0.4283    0.0000 C   0  0  0  0  0  0  0  0  0  0  0  0
   13.1249   -0.4918    0.0000 C   0  0  0  0  0  0  0  0  0  0  0  0
   13.1463    0.5685    0.0000 C   0  0  0  0  0  0  0  0  0  0  0  0
    6.0039   -2.2766    0.0000 C   0  0  0  0  0  0  0  0  0  0  0  0
   13.0862    2.5573    0.0000 C   0  0  0  0  0  0  0  0  0  0  0  0
    6.0525    2.5917    0.0000 C   0  0  0  0  0  0  0  0  0  0  0  0
    6.7271   -3.8204    0.0000 C   0  0  0  0  0  0  0  0  0  0  0  0
   13.0463   -2.5355    0.0000 C   0  0  0  0  0  0  0  0  0  0  0  0
    6.9333    4.0973    0.0000 C   0  0  0  0  0  0  0  0  0  0  0  0
   12.2396    4.1711    0.0000 C   0  0  0  0  0  0  0  0  0  0  0  0
   12.1781   -4.0699    0.0000 C   0  0  0  0  0  0  0  0  0  0  0  0
    8.4403   -5.0679    0.0000 C   0  0  0  0  0  0  0  0  0  0  0  0
   10.2852   -5.1729    0.0000 C   0  0  0  0  0  0  0  0  0  0  0  0
    8.5942    5.1361    0.0000 C   0  0  0  0  0  0  0  0  0  0  0  0
   10.3934    5.2020    0.0000 C   0  0  0  0  0  0  0  0  0  0  0  0
    5.9262   -3.2543    0.0000 C   0  0  0  0  0  0  0  0  0  0  0  0
    5.1562    1.0680    0.0000 C   0  0  0  0  0  0  0  0  0  0  0  0
    6.0544    3.6010    0.0000 C   0  0  0  0  0  0  0  0  0  0  0  0
   13.1438    3.6165    0.0000 C   0  0  0  0  0  0  0  0  0  0  0  0
    5.1737   -0.8961    0.0000 C   0  0  0  0  0  0  0  0  0  0  0  0
   13.0488   -3.5498    0.0000 C   0  0  0  0  0  0  0  0  0  0  0  0
    5.1634   -1.8982    0.0000 C   0  0  0  0  0  0  0  0  0  0  0  0
   13.9762   -1.0126    0.0000 C   0  0  0  0  0  0  0  0  0  0  0  0
   13.9509    1.1606    0.0000 C   0  0  0  0  0  0  0  0  0  0  0  0
   13.8726    2.1564    0.0000 C   0  0  0  0  0  0  0  0  0  0  0  0
    9.3329   -5.6455    0.0000 C   0  0  0  0  0  0  0  0  0  0  0  0
    9.4746    5.6931    0.0000 C   0  0  0  0  0  0  0  0  0  0  0  0
    5.1606    2.0909    0.0000 C   0  0  0  0  0  0  0  0  0  0  0  0
    6.6066   -4.8477    0.0000 C   0  0  0  0  0  0  0  0  0  0  0  0
   13.9548   -2.0449    0.0000 C   0  0  0  0  0  0  0  0  0  0  0  0
   12.1212   -5.2226    0.0000 C   0  0  0  0  0  0  0  0  0  0  0  0
    6.8842    5.0267    0.0000 C   0  0  0  0  0  0  0  0  0  0  0  0
   12.2147    5.1962    0.0000 C   0  0  0  0  0  0  0  0  0  0  0  0
    7.4408   -5.4594    0.0000 C   0  0  0  0  0  0  0  0  0  0  0  0
   11.1890   -5.7203    0.0000 C   0  0  0  0  0  0  0  0  0  0  0  0
    7.7081    5.5680    0.0000 C   0  0  0  0  0  0  0  0  0  0  0  0
   11.3206    5.6982    0.0000 C   0  0  0  0  0  0  0  0  0  0  0  0
    4.2725    0.5482    0.0000 C   0  0  3  0  0  0  0  0  0  0  0  0
    5.0357   -3.6541    0.0000 C   0  0  0  0  0  0  0  0  0  0  0  0
    5.1620    4.0719    0.0000 C   0  0  0  0  0  0  0  0  0  0  0  0
   13.8820   -4.1014    0.0000 C   0  0  0  0  0  0  0  0  0  0  0  0
   14.0765    4.1506    0.0000 C   0  0  0  0  0  0  0  0  0  0  0  0
    4.2641   -2.3224    0.0000 C   0  0  3  0  0  0  0  0  0  0  0  0
   14.9091   -0.5367    0.0000 C   0  0  0  0  0  0  0  0  0  0  0  0
   14.8366    2.5543    0.0000 C   0  0  3  0  0  0  0  0  0  0  0  0
    5.7020   -5.2144    0.0000 C   0  0  0  0  0  0  0  0  0  0  0  0
    4.2888   -0.4769    0.0000 C   0  0  0  0  0  0  0  0  0  0  0  0
   13.0303   -5.6373    0.0000 C   0  0  0  0  0  0  0  0  0  0  0  0
   13.1348    5.7517    0.0000 C   0  0  0  0  0  0  0  0  0  0  0  0
    6.0340    5.5701    0.0000 C   0  0  0  0  0  0  0  0  0  0  0  0
    9.4909    6.7329    0.0000 C   0  0  0  0  0  0  0  0  0  0  0  0
    9.3100   -6.6918    0.0000 C   0  0  0  0  0  0  0  0  0  0  0  0
   14.9553    0.5096    0.0000 C   0  0  0  0  0  0  0  0  0  0  0  0
    4.9248   -4.6239    0.0000 C   0  0  0  0  0  0  0  0  0  0  0  0
    7.3557   -6.5271    0.0000 C   0  0  0  0  0  0  0  0  0  0  0  0
   14.0720    5.2254    0.0000 C   0  0  0  0  0  0  0  0  0  0  0  0
   11.1276   -6.7650    0.0000 C   0  0  0  0  0  0  0  0  0  0  0  0
    7.6981    6.6895    0.0000 C   0  0  0  0  0  0  0  0  0  0  0  0
   13.8732   -5.1006    0.0000 C   0  0  0  0  0  0  0  0  0  0  0  0
    5.1516    5.0808    0.0000 C   0  0  0  0  0  0  0  0  0  0  0  0
   11.2986    6.7380    0.0000 C   0  0  0  0  0  0  0  0  0  0  0  0
    4.2879    3.5597    0.0000 C   0  0  0  0  0  0  0  0  0  0  0  0
    4.3022    2.5467    0.0000 C   0  0  0  0  0  0  0  0  0  0  0  0
   14.7554   -3.6144    0.0000 C   0  0  0  0  0  0  0  0  0  0  0  0
    4.2292   -3.3162    0.0000 C   0  0  0  0  0  0  0  0  0  0  0  0
   14.7825   -2.6148    0.0000 C   0  0  0  0  0  0  0  0  0  0  0  0
   14.9246    3.5935    0.0000 C   0  0  0  0  0  0  0  0  0  0  0  0
    8.5821    7.2214    0.0000 C   0  0  0  0  0  0  0  0  0  0  0  0
    5.5466   -6.2325    0.0000 C   0  0  0  0  0  0  0  0  0  0  0  0
    8.2302   -7.1454    0.0000 C   0  0  0  0  0  0  0  0  0  0  0  0
   10.1980   -7.2457    0.0000 C   0  0  0  0  0  0  0  0  0  0  0  0
   10.3933    7.2499    0.0000 C   0  0  0  0  0  0  0  0  0  0  0  0
   12.9842   -6.8698    0.0000 C   0  0  0  0  0  0  0  0  0  0  0  0
    5.9528    6.5131    0.0000 C   0  0  0  0  0  0  0  0  0  0  0  0
   13.0859    6.7730    0.0000 C   0  0  0  0  0  0  0  0  0  0  0  0
    6.3555   -6.8700    0.0000 C   0  0  0  0  0  0  0  0  0  0  0  0
   12.0254   -7.3581    0.0000 C   0  0  0  0  0  0  0  0  0  0  0  0
    4.0252   -4.9908    0.0000 C   0  0  3  0  0  0  0  0  0  0  0  0
    6.7764    7.0865    0.0000 C   0  0  0  0  0  0  0  0  0  0  0  0
   12.1827    7.2524    0.0000 C   0  0  0  0  0  0  0  0  0  0  0  0
   14.9863    5.7932    0.0000 C   0  0  0  0  0  0  0  0  0  0  0  0
    3.4006    1.0378    0.0000 C   0  0  0  0  0  0  0  0  0  0  0  0
   14.7114   -5.6426    0.0000 C   0  0  0  0  0  0  0  0  0  0  0  0
    4.2560    5.5341    0.0000 C   0  0  0  0  0  0  0  0  0  0  0  0
    3.4290   -1.7723    0.0000 C   0  0  0  0  0  0  0  0  0  0  0  0
   15.6435    1.9636    0.0000 C   0  0  0  0  0  0  0  0  0  0  0  0
    4.2285    6.5375    0.0000 C   0  0  3  0  0  0  0  0  0  0  0  0
   13.9195   -7.2188    0.0000 C   0  0  0  0  0  0  0  0  0  0  0  0
    4.6340   -6.5660    0.0000 C   0  0  0  0  0  0  0  0  0  0  0  0
    5.0979    7.0392    0.0000 C   0  0  0  0  0  0  0  0  0  0  0  0
   13.9868    7.3619    0.0000 C   0  0  0  0  0  0  0  0  0  0  0  0
   14.7332   -6.6406    0.0000 C   0  0  0  0  0  0  0  0  0  0  0  0
    3.8813   -5.9517    0.0000 C   0  0  0  0  0  0  0  0  0  0  0  0
   14.9434    6.8686    0.0000 C   0  0  0  0  0  0  0  0  0  0  0  0
    8.5579    8.2211    0.0000 C   0  0  0  0  0  0  0  0  0  0  0  0
    6.2160   -7.8602    0.0000 C   0  0  0  0  0  0  0  0  0  0  0  0
   11.9691   -8.3566    0.0000 C   0  0  0  0  0  0  0  0  0  0  0  0
    3.2389   -4.3729    0.0000 C   0  0  0  0  0  0  0  0  0  0  0  0
   15.5845   -5.1551    0.0000 C   0  0  0  0  0  0  0  0  0  0  0  0
    3.3557    7.0257    0.0000 C   0  0  0  0  0  0  0  0  0  0  0  0
   13.9354    8.3605    0.0000 C   0  0  0  0  0  0  0  0  0  0  0  0
    3.7400    0.2307    0.0000 H   0  0  0  0  0  0  0  0  0  0  0  0
    3.7131   -2.6068    0.0000 H   0  0  0  0  0  0  0  0  0  0  0  0
   15.0922   -1.1290    0.0000 H   0  0  0  0  0  0  0  0  0  0  0  0
   15.5241   -0.4576    0.0000 H   0  0  0  0  0  0  0  0  0  0  0  0
   14.7623    1.9388    0.0000 H   0  0  0  0  0  0  0  0  0  0  0  0
    3.7675   -0.8126    0.0000 H   0  0  0  0  0  0  0  0  0  0  0  0
   15.5064    0.7936    0.0000 H   0  0  0  0  0  0  0  0  0  0  0  0
    4.0706    4.1404    0.0000 H   0  0  0  0  0  0  0  0  0  0  0  0
    3.6786    3.4450    0.0000 H   0  0  0  0  0  0  0  0  0  0  0  0
    3.7731    2.2235    0.0000 H   0  0  0  0  0  0  0  0  0  0  0  0
   14.9563   -4.2009    0.0000 H   0  0  0  0  0  0  0  0  0  0  0  0
   15.3683   -3.5208    0.0000 H   0  0  0  0  0  0  0  0  0  0  0  0
    3.7070   -3.6505    0.0000 H   0  0  0  0  0  0  0  0  0  0  0  0
   15.3352   -2.3338    0.0000 H   0  0  0  0  0  0  0  0  0  0  0  0
   15.4822    3.8646    0.0000 H   0  0  0  0  0  0  0  0  0  0  0  0
    8.1628   -7.7618    0.0000 H   0  0  0  0  0  0  0  0  0  0  0  0
   10.1730   -7.8652    0.0000 H   0  0  0  0  0  0  0  0  0  0  0  0
   10.3916    7.8699    0.0000 H   0  0  0  0  0  0  0  0  0  0  0  0
    4.1113   -4.3768    0.0000 H   0  0  0  0  0  0  0  0  0  0  0  0
    6.7141    7.7034    0.0000 H   0  0  0  0  0  0  0  0  0  0  0  0
   12.1706    7.8723    0.0000 H   0  0  0  0  0  0  0  0  0  0  0  0
   15.2184    5.2183    0.0000 H   0  0  0  0  0  0  0  0  0  0  0  0
   15.5924    5.9236    0.0000 H   0  0  0  0  0  0  0  0  0  0  0  0
    3.7323    5.2022    0.0000 H   0  0  0  0  0  0  0  0  0  0  0  0
    4.2244    7.1575    0.0000 H   0  0  0  0  0  0  0  0  0  0  0  0
   14.0000   -7.8335    0.0000 H   0  0  0  0  0  0  0  0  0  0  0  0
    4.5309   -7.1774    0.0000 H   0  0  0  0  0  0  0  0  0  0  0  0
    5.1067    7.6591    0.0000 H   0  0  0  0  0  0  0  0  0  0  0  0
   14.9855   -7.2070    0.0000 H   0  0  0  0  0  0  0  0  0  0  0  0
   15.3382   -6.5050    0.0000 H   0  0  0  0  0  0  0  0  0  0  0  0
    3.3030   -6.1752    0.0000 H   0  0  0  0  0  0  0  0  0  0  0  0
   15.4663    7.2018    0.0000 H   0  0  0  0  0  0  0  0  0  0  0  0
    2.0000    0.8309    0.0000 H   0  0  0  0  0  0  0  0  0  0  0  0
    2.0173   -1.8793    0.0000 H   0  0  0  0  0  0  0  0  0  0  0  0
   17.0588    2.0009    0.0000 H   0  0  0  0  0  0  0  0  0  0  0  0
    7.6650    9.3198    0.0000 H   0  0  0  0  0  0  0  0  0  0  0  0
    5.2022   -8.8484    0.0000 H   0  0  0  0  0  0  0  0  0  0  0  0
   12.7706   -9.5236    0.0000 H   0  0  0  0  0  0  0  0  0  0  0  0
    2.2226   -5.3586    0.0000 H   0  0  0  0  0  0  0  0  0  0  0  0
   16.9846   -5.3651    0.0000 H   0  0  0  0  0  0  0  0  0  0  0  0
    2.8011    8.3283    0.0000 H   0  0  0  0  0  0  0  0  0  0  0  0
   14.7427    9.5236    0.0000 H   0  0  0  0  0  0  0  0  0  0  0  0
  1141  1  0  0  0  0
  1193  1  0  0  0  0
  2144  1  0  0  0  0
  2194  1  0  0  0  0
  3141  2  0  0  0  0
  4145  1  0  0  0  0
  4195  1  0  0  0  0
  5144  2  0  0  0  0
  6145  2  0  0  0  0
  7154  1  0  0  0  0
  7196  1  0  0  0  0
  8154  2  0  0  0  0
  9155  1  0  0  0  0
  9197  1  0  0  0  0
 10156  1  0  0  0  0
 10198  1  0  0  0  0
 11157  1  0  0  0  0
 11199  1  0  0  0  0
 12155  2  0  0  0  0
 13156  2  0  0  0  0
 14157  2  0  0  0  0
 15158  1  0  0  0  0
 15200  1  0  0  0  0
 16158  2  0  0  0  0
 17159  1  0  0  0  0
 17201  1  0  0  0  0
 18160  1  0  0  0  0
 18202  1  0  0  0  0
 19159  2  0  0  0  0
 20160  2  0  0  0  0
 21 22  1  0  0  0  0
 21 23  1  0  0  0  0
 21 25  2  0  0  0  0
 22 24  2  0  0  0  0
 22 26  1  0  0  0  0
 23 27  2  0  0  0  0
 23 29  1  0  0  0  0
 24 28  1  0  0  0  0
 24 32  1  0  0  0  0
 25 31  1  0  0  0  0
 25 33  1  0  0  0  0
 26 30  2  0  0  0  0
 26 34  1  0  0  0  0
 27 28  1  0  0  0  0
 27 38  1  0  0  0  0
 28 40  2  0  0  0  0
 29 35  2  0  0  0  0
 29 37  1  0  0  0  0
 30 31  1  0  0  0  0
 30 43  1  0  0  0  0
 31 44  2  0  0  0  0
 32 36  1  0  0  0  0
 32 39  2  0  0  0  0
 33 35  1  0  0  0  0
 33 42  2  0  0  0  0
 34 36  2  0  0  0  0
 34 41  1  0  0  0  0
 35 45  1  0  0  0  0
 36 46  1  0  0  0  0
 37 47  2  0  0  0  0
 37 51  1  0  0  0  0
 38 47  1  0  0  0  0
 38 60  2  0  0  0  0
 39 48  1  0  0  0  0
 39 52  1  0  0  0  0
 40 48  1  0  0  0  0
 40 57  1  0  0  0  0
 41 49  2  0  0  0  0
 41 54  1  0  0  0  0
 42 50  1  0  0  0  0
 42 53  1  0  0  0  0
 43 49  1  0  0  0  0
 43 62  2  0  0  0  0
 44 50  1  0  0  0  0
 44 61  1  0  0  0  0
 45 55  1  0  0  0  0
 45 56  2  0  0  0  0
 46 58  2  0  0  0  0
 46 59  1  0  0  0  0
 47 63  1  0  0  0  0
 48 65  2  0  0  0  0
 49 64  1  0  0  0  0
 50 67  2  0  0  0  0
 51 55  2  0  0  0  0
 51 66  1  0  0  0  0
 52 58  1  0  0  0  0
 52 68  2  0  0  0  0
 53 56  1  0  0  0  0
 53 70  2  0  0  0  0
 54 59  2  0  0  0  0
 54 69  1  0  0  0  0
 55 71  1  0  0  0  0
 56 72  1  0  0  0  0
 57 60  1  0  0  0  0
 57 76  2  0  0  0  0
 58 73  1  0  0  0  0
 59 74  1  0  0  0  0
 60 79  1  0  0  0  0
 61 62  1  0  0  0  0
 61 82  2  0  0  0  0
 62 83  1  0  0  0  0
 63 75  1  0  0  0  0
 63 81  2  0  0  0  0
 64 78  1  0  0  0  0
 64 84  2  0  0  0  0
 65 77  1  0  0  0  0
 65 87  1  0  0  0  0
 66 75  2  0  0  0  0
 66 88  1  0  0  0  0
 67 80  1  0  0  0  0
 67 89  1  0  0  0  0
 68 77  1  0  0  0  0
 68 91  1  0  0  0  0
 69 78  2  0  0  0  0
 69 92  1  0  0  0  0
 70 80  1  0  0  0  0
 70 90  1  0  0  0  0
 71 85  2  0  0  0  0
 71 93  1  0  0  0  0
 72 85  1  0  0  0  0
 72 94  2  0  0  0  0
 73 86  1  0  0  0  0
 73 95  2  0  0  0  0
 74 86  2  0  0  0  0
 74 96  1  0  0  0  0
 75 98  1  0  0  0  0
 76 87  1  0  0  0  0
 76 97  1  0  0  0  0
 77 99  2  0  0  0  0
 78101  1  0  0  0  0
 79 81  1  0  0  0  0
 79106  2  0  0  0  0
 80100  2  0  0  0  0
 81102  1  0  0  0  0
 82 89  1  0  0  0  0
 82103  1  0  0  0  0
 83 84  1  0  0  0  0
 83112  2  0  0  0  0
 84104  1  0  0  0  0
 85111  1  0  0  0  0
 86110  1  0  0  0  0
 87122  2  0  0  0  0
 88 93  2  0  0  0  0
 88105  1  0  0  0  0
 89125  2  0  0  0  0
 90 94  1  0  0  0  0
 90107  2  0  0  0  0
 91 95  1  0  0  0  0
 91109  2  0  0  0  0
 92 96  2  0  0  0  0
 92108  1  0  0  0  0
 93114  1  0  0  0  0
 94116  1  0  0  0  0
 95117  1  0  0  0  0
 96120  1  0  0  0  0
 97106  1  0  0  0  0
 97141  1  0  0  0  0
 97161  1  0  0  0  0
 98113  1  0  0  0  0
 98124  2  0  0  0  0
 99119  1  0  0  0  0
 99121  1  0  0  0  0
100118  1  0  0  0  0
100123  1  0  0  0  0
101115  1  0  0  0  0
101126  2  0  0  0  0
102124  1  0  0  0  0
102144  1  0  0  0  0
102162  1  0  0  0  0
103112  1  0  0  0  0
103163  1  0  0  0  0
103164  1  0  0  0  0
104126  1  0  0  0  0
104145  1  0  0  0  0
104165  1  0  0  0  0
105113  2  0  0  0  0
105128  1  0  0  0  0
106166  1  0  0  0  0
107118  1  0  0  0  0
107132  1  0  0  0  0
108115  2  0  0  0  0
108134  1  0  0  0  0
109119  1  0  0  0  0
109133  1  0  0  0  0
110127  2  0  0  0  0
110131  1  0  0  0  0
111129  1  0  0  0  0
111130  2  0  0  0  0
112167  1  0  0  0  0
113137  1  0  0  0  0
114129  2  0  0  0  0
114135  1  0  0  0  0
115140  1  0  0  0  0
116130  1  0  0  0  0
116136  2  0  0  0  0
117127  1  0  0  0  0
117138  2  0  0  0  0
118142  2  0  0  0  0
119143  2  0  0  0  0
120131  2  0  0  0  0
120139  1  0  0  0  0
121122  1  0  0  0  0
121168  1  0  0  0  0
121169  1  0  0  0  0
122170  1  0  0  0  0
123125  1  0  0  0  0
123171  1  0  0  0  0
123172  1  0  0  0  0
124173  1  0  0  0  0
125174  1  0  0  0  0
126175  1  0  0  0  0
127154  1  0  0  0  0
128135  2  0  0  0  0
128148  1  0  0  0  0
129176  1  0  0  0  0
130177  1  0  0  0  0
131178  1  0  0  0  0
132136  1  0  0  0  0
132147  2  0  0  0  0
133138  1  0  0  0  0
133149  2  0  0  0  0
134139  2  0  0  0  0
134150  1  0  0  0  0
135155  1  0  0  0  0
136156  1  0  0  0  0
137152  1  0  0  0  0
137157  1  0  0  0  0
137179  1  0  0  0  0
138180  1  0  0  0  0
139181  1  0  0  0  0
140153  1  0  0  0  0
140182  1  0  0  0  0
140183  1  0  0  0  0
142151  1  0  0  0  0
142158  1  0  0  0  0
143146  1  0  0  0  0
143184  1  0  0  0  0
146149  1  0  0  0  0
146159  1  0  0  0  0
146185  1  0  0  0  0
147151  1  0  0  0  0
147186  1  0  0  0  0
148152  2  0  0  0  0
148187  1  0  0  0  0
149188  1  0  0  0  0
150153  2  0  0  0  0
150160  1  0  0  0  0
151189  1  0  0  0  0
151190  1  0  0  0  0
152191  1  0  0  0  0
153192  1  0  0  0  0
M  END
> <PUBCHEM_COMPOUND_CID>
124202900

> <PUBCHEM_COMPOUND_CANONICALIZED>
1

> <PUBCHEM_CACTVS_COMPLEXITY>
12600

> <PUBCHEM_CACTVS_HBOND_ACCEPTOR>
20

> <PUBCHEM_CACTVS_HBOND_DONOR>
10

> <PUBCHEM_CACTVS_ROTATABLE_BOND>
10

> <PUBCHEM_CACTVS_SUBSKEYS>
AAADcfB8PgAAAAAAAAAAAAAAAAAAAAAAAAAgQIECAAAAAACAAAAAGgAACAAADQCAgAAACAAAAgCIAiDSCAAAAAAgAAAICAEAAEgIBBIAAQAAUAAEwAAIkYOIyOCMAAAAAAAAAAAAAAAAAAAAAAAAAAAAAA==

> <PUBCHEM_IUPAC_INCHI>
InChI=1S/C140H42O20/c141-131(142)26-13-23-15-44-62(140(159)160)45-16-24-14-40-31(132(143)144)5-1-29-41-20-48(135(149)150)56-33-7-3-28-27-2-6-32-55-37(133(145)146)11-9-35-60(138(155)156)42-17-25-18-43-61(139(157)158)36-10-12-38(134(147)148)58-46-21-50(137(153)154)59-47-22-49(136(151)152)57-34-8-4-30-39(19-26)51(23)78-72(44)88-75(45)80-52(24)79(54(29)40)95-71(41)83(56)101-93-69(33)64(28)91-90-63(27)68(32)92-86(66(35)55)73(42)81-53(25)82-74(43)87(67(36)58)96-76(46)85(59)103-97-77(47)84(57)102-94-70(34)65(30)89(78)105-104(88)115-98(80)111(95)116(101)126-122-110(93)107(91)120-119-106(90)108(92)99(81)114-100(82)112(96)118(103)128(124(114)119)123-113(97)117(102)127(130(122)129(120)123)121(109(94)105)125(115)126/h2,5,7-10,12-22,26,38,48-50H,1,3-4,6,11H2,(H,141,142)(H,143,144)(H,145,146)(H,147,148)(H,149,150)(H,151,152)(H,153,154)(H,155,156)(H,157,158)(H,159,160)

> <PUBCHEM_IUPAC_INCHIKEY>
VTWITIAIMADGRM-UHFFFAOYSA-N

> <PUBCHEM_XLOGP3_AA>
-15.8

> <PUBCHEM_EXACT_MASS>
2043.23

> <PUBCHEM_MOLECULAR_FORMULA>
C140H42O20

> <PUBCHEM_MOLECULAR_WEIGHT>
2043.856

> <PUBCHEM_OPENEYE_CAN_SMILES>
C1C=C2C3=C4C5=C6C7=C8C(=CC9=C(C%10=CC%11=CC(C=C%12C%11=C%11C%10=C%10C9=C8C8=C6C6=C4C4=C2C2=C1C1=CCC9=C%13C1=C1C2=C2C4=C4C6=C6C8=C%10C8=C%11C%10=C%12CC=C%11C%10=C%10C8=C6C6=C4C4=C2C2=C1C1=C%13C8=C%12C9=C(CC=C%12C(=C9C8=C8C1=C1C2=C2C4=C4C6=C%10C6=C%11C(C=C%10C6=C4C4=C2C2=C1C1=C8C(=C9)C=C6C1=C1C2=C2C4=C%10C(C=C2C2=C1C(=C6C(=O)O)C=CC2C(=O)O)C(=O)O)C(=O)O)C(=O)O)C(=O)O)C(=O)O)C(=O)O)C=C1C7=C(C5=CC3C(=O)O)CC=C1C(=O)O

> <PUBCHEM_OPENEYE_ISO_SMILES>
C1C=C2C3=C4C5=C6C7=C8C(=CC9=C(C%10=CC%11=CC(C=C%12C%11=C%11C%10=C%10C9=C8C8=C6C6=C4C4=C2C2=C1C1=CCC9=C%13C1=C1C2=C2C4=C4C6=C6C8=C%10C8=C%11C%10=C%12CC=C%11C%10=C%10C8=C6C6=C4C4=C2C2=C1C1=C%13C8=C%12C9=C(CC=C%12C(=C9C8=C8C1=C1C2=C2C4=C4C6=C%10C6=C%11C(C=C%10C6=C4C4=C2C2=C1C1=C8C(=C9)C=C6C1=C1C2=C2C4=C%10C(C=C2C2=C1C(=C6C(=O)O)C=CC2C(=O)O)C(=O)O)C(=O)O)C(=O)O)C(=O)O)C(=O)O)C(=O)O)C=C1C7=C(C5=CC3C(=O)O)CC=C1C(=O)O

> <PUBCHEM_CACTVS_TPSA>
373

> <PUBCHEM_MONOISOTOPIC_WEIGHT>
2042.227

> <PUBCHEM_TOTAL_CHARGE>
0

> <PUBCHEM_HEAVY_ATOM_COUNT>
160

> <PUBCHEM_ATOM_DEF_STEREO_COUNT>
0

> <PUBCHEM_ATOM_UDEF_STEREO_COUNT>
5

> <PUBCHEM_BOND_DEF_STEREO_COUNT>
0

> <PUBCHEM_BOND_UDEF_STEREO_COUNT>
0

> <PUBCHEM_ISOTOPIC_ATOM_COUNT>
0

> <PUBCHEM_COMPONENT_COUNT>
1

> <PUBCHEM_CACTVS_TAUTO_COUNT>
-1

> <PUBCHEM_COORDINATE_TYPE>
1
5
255

> <PUBCHEM_BONDANNOTATIONS>
100  118  8
101  115  8
102  144  3
104  145  3
105  113  8
105  128  8
107  118  8
107  132  8
108  115  8
108  134  8
109  119  8
109  133  8
110  127  8
110  131  8
111  129  8
111  130  8
114  129  8
114  135  8
116  130  8
116  136  8
117  127  8
117  138  8
120  131  8
120  139  8
128  135  8
132  136  8
133  138  8
134  139  8
137  157  3
146  159  3
21  22  8
21  23  8
21  25  8
22  24  8
22  26  8
23  27  8
23  29  8
24  28  8
24  32  8
25  31  8
25  33  8
26  30  8
26  34  8
27  28  8
27  38  8
28  40  8
29  35  8
29  37  8
30  31  8
30  43  8
31  44  8
32  36  8
32  39  8
33  35  8
33  42  8
34  36  8
34  41  8
35  45  8
36  46  8
37  47  8
37  51  8
38  47  8
38  60  8
39  48  8
39  52  8
40  48  8
40  57  8
41  49  8
41  54  8
42  50  8
42  53  8
43  49  8
43  62  8
44  50  8
44  61  8
45  55  8
45  56  8
46  58  8
46  59  8
47  63  8
48  65  8
49  64  8
50  67  8
51  55  8
51  66  8
52  58  8
52  68  8
53  56  8
53  70  8
54  59  8
54  69  8
55  71  8
56  72  8
57  60  8
57  76  8
58  73  8
59  74  8
60  79  8
61  62  8
61  82  8
62  83  8
63  75  8
63  81  8
64  78  8
64  84  8
65  77  8
65  87  8
66  75  8
66  88  8
67  80  8
67  89  8
68  77  8
68  91  8
69  78  8
69  92  8
70  80  8
70  90  8
71  85  8
71  93  8
72  85  8
72  94  8
73  86  8
73  95  8
74  86  8
74  96  8
75  98  8
76  87  8
77  99  8
78  101  8
79  81  8
80  100  8
82  89  8
83  84  8
85  111  8
86  110  8
88  105  8
88  93  8
90  107  8
90  94  8
91  109  8
91  95  8
92  108  8
92  96  8
93  114  8
94  116  8
95  117  8
96  120  8
97  141  3
98  113  8
99  119  8

$$$$
